Circuit: * C:\Users\Shubhojit Ghosh\AppData\Local\LTspice\models\Draft1.asc

Warning: Multiple definitions of model "2scr375p" Type: BJT
Warning: Multiple definitions of model "bc857b" Type: BJT
Warning: Multiple definitions of model "bc847c" Type: BJT
Warning: Multiple definitions of model "bc847b" Type: BJT
Error on line 3 : vbe n003 0 v
	 Unknown parameter "v"
vbe: Missing value, assumed 0V @ DC
.OP point found by inspection.
.step vce=0
.step vce=1
.step vce=2
.step vce=3
.step vce=4
.step vce=5

Date: Thu Jul 20 00:41:57 2023
Total elapsed time: 0.031 seconds.

tnom = 27
temp = 27
method = trap
totiter = 236
traniter = 0
tranpoints = 0
accept = 0
rejected = 0
matrix size = 8
fillins = 0
solver = Normal
Avg thread counts: 3.9/0.0/4.0/3.9
Matrix Compiler1:      26 opcodes  0.3/[0.1]/0.1
Matrix Compiler2: 608 bytes object code size  0.2/0.1/[0.1]

