Circuit: * C:\Users\Shubhojit Ghosh\AppData\Local\LTspice\models\Draft3.asc

Warning: Multiple definitions of model "2scr375p" Type: BJT
Warning: Multiple definitions of model "bc857b" Type: BJT
Warning: Multiple definitions of model "bc847c" Type: BJT
Warning: Multiple definitions of model "bc847b" Type: BJT
WARNING: Node OUTPUT is floating.

WARNING: Less than two connections to node output.  This node is used by c2.
Direct Newton iteration for .op point succeeded.

Date: Thu Jul 20 01:21:21 2023
Total elapsed time: 0.036 seconds.

tnom = 27
temp = 27
method = trap
totiter = 20
traniter = 0
tranpoints = 0
accept = 0
rejected = 0
matrix size = 12
fillins = 0
solver = Normal
Avg thread counts: 4.0/0.0/4.0/3.9
Matrix Compiler1:      33 opcodes
Matrix Compiler2: 892 bytes object code size
