Circuit: * C:\Users\Shubhojit Ghosh\AppData\Local\LTspice\models\Draft2.asc

Direct Newton iteration for .op point succeeded.

Date: Thu Jul 20 21:17:46 2023
Total elapsed time: 0.039 seconds.

tnom = 27
temp = 27
method = modified trap
totiter = 2695
traniter = 2691
tranpoints = 1172
accept = 1115
rejected = 57
matrix size = 9
fillins = 0
solver = Normal
Avg thread counts: 1.5/2.1/2.1/1.5
Matrix Compiler1:      16 opcodes  0.1/[0.0]/0.1
Matrix Compiler2: off  [0.1]/0.1/0.1

